LTspice 24.0.12 for Windows
Circuit: * H:\00_Lehre\01_Unterrichtsmaterial\02_Industrial_Electronics\MECH-M-3-IEL-IEL-ILV\simulations\flyback.asc
Start Time: Tue Oct 29 14:40:26 2024
solver = Alternate
Maximum thread count: 8
tnom = 27
temp = 27
method = trap
.OP point found by inspection.
Total elapsed time: 10.184 seconds.

